%% This BibTeX bibliography file was created using BibDesk.
%% http://bibdesk.sourceforge.net/

%% Created for Vijayakumar, Ganesh at 2016-09-13 13:12:19 -0600 


%% Saved with string encoding Unicode (UTF-8) 



@techreport{fastProgrammersHandbook,
	Author = {B.J. Jonkman and J. Michalakes and J.M. Jonkman and M.L. Buhl and Jr. and A. Platt and and M.A. Sprague},
	Date-Added = {2016-09-13 19:10:59 +0000},
	Date-Modified = {2016-09-13 19:12:19 +0000},
	Institution = {National Renewable Energy Laboratory},
	Month = {July},
	Title = {NWTC Programmer's Handbook: A Guide for Software Development Within the FAST Computer-Aided Engineering Tool},
	Year = {2013}}

@techreport{aerodynV15Manual,
	Author = {Jason M. Jonkman and G. J. Hayman and Bonnie J. Jonkman and R. R. Damiani},
	Date-Added = {2016-07-25 20:05:45 +0000},
	Date-Modified = {2016-07-25 20:08:15 +0000},
	Institution = {National Renewable Energy Laboratory},
	Month = {April},
	Title = {{AeroDyn v15 User's Guide and Theory Manual}},
	Year = {2016},
	Bdsk-File-1 = {YnBsaXN0MDDUAQIDBAUGJCVYJHZlcnNpb25YJG9iamVjdHNZJGFyY2hpdmVyVCR0b3ASAAGGoKgHCBMUFRYaIVUkbnVsbNMJCgsMDxJXTlMua2V5c1pOUy5vYmplY3RzViRjbGFzc6INDoACgAOiEBGABIAFgAdccmVsYXRpdmVQYXRoWWFsaWFzRGF0YV8QEkFlcm9EeW5fTWFudWFsLnBkZtIXCxgZV05TLmRhdGFPEQICAAAAAAICAAIAAAxNYWNpbnRvc2ggSEQAAAAAAAAAAAAAAAAAAADSuUb2SCsAAAAhMDASQWVyb0R5bl9NYW51YWwucGRmAAAAAAAAAAAAAAAAAAAAAAAAAAAAAAAAAAAAAAAAAAAAAAAAAAAAAAAAAAAAAC2W59O7er4AAAAAAAAAAAABAAIAAAkgAAAAAAAAAAAAAAAAAAAAClJlZmVyZW5jZXMAEAAIAADSualmAAAAEQAIAADTu88eAAAAAQAYACEwMAAhHKQAIRrKABhZbwAOX2IABixfAAIAbk1hY2ludG9zaCBIRDpVc2VyczoAZ3ZpamF5YToAQ3VycmVudFByb2plY3RzOgBGQVNUdjhJbnRlZ3JhdGlvbjoAZHJpdmVyUHJvZ3JhbToAUmVmZXJlbmNlczoAQWVyb0R5bl9NYW51YWwucGRmAA4AJgASAEEAZQByAG8ARAB5AG4AXwBNAGEAbgB1AGEAbAAuAHAAZABmAA8AGgAMAE0AYQBjAGkAbgB0AG8AcwBoACAASABEABIAW1VzZXJzL2d2aWpheWEvQ3VycmVudFByb2plY3RzL0ZBU1R2OEludGVncmF0aW9uL2RyaXZlclByb2dyYW0vUmVmZXJlbmNlcy9BZXJvRHluX01hbnVhbC5wZGYAABMAAS8AABUAAgAO//8AAIAG0hscHR5aJGNsYXNzbmFtZVgkY2xhc3Nlc11OU011dGFibGVEYXRhox0fIFZOU0RhdGFYTlNPYmplY3TSGxwiI1xOU0RpY3Rpb25hcnmiIiBfEA9OU0tleWVkQXJjaGl2ZXLRJidUcm9vdIABAAgAEQAaACMALQAyADcAQABGAE0AVQBgAGcAagBsAG4AcQBzAHUAdwCEAI4AowCoALACtgK4Ar0CyALRAt8C4wLqAvMC+AMFAwgDGgMdAyIAAAAAAAACAQAAAAAAAAAoAAAAAAAAAAAAAAAAAAADJA==}}

@techreport{naluDoc,
	Address = {https://github.com/spdomin/NaluDoc},
	Author = {Stefan Domino},
	Date-Added = {2016-07-22 00:59:24 +0000},
	Date-Modified = {2016-07-22 01:01:18 +0000},
	Institution = {Sandia National Laboratories Unclassified Unlimited Release (UUR)},
	Number = {SAND2015-3107W},
	Title = {{Sierra Low Mach Module: Nalu Theory Manual 1.0}},
	Year = {2015}}

@techreport{fastv8AlgorithmsExamples,
	Author = {Michael A. Sprague and Jason M. Jonkman and Bonnie J. Jonkman},
	Date-Added = {2016-07-21 19:26:39 +0000},
	Date-Modified = {2016-07-21 19:28:31 +0000},
	Institution = {National Renewable Energy Laboratory},
	Month = {January},
	Number = {NREL/CP-2C00-63203},
	Title = {{FAST Modular Framework for Wind Turbine Simulation: New Algorithms and Numerical Examples}},
	Year = {2015},
	Bdsk-File-1 = {YnBsaXN0MDDUAQIDBAUGJCVYJHZlcnNpb25YJG9iamVjdHNZJGFyY2hpdmVyVCR0b3ASAAGGoKgHCBMUFRYaIVUkbnVsbNMJCgsMDxJXTlMua2V5c1pOUy5vYmplY3RzViRjbGFzc6INDoACgAOiEBGABIAFgAdccmVsYXRpdmVQYXRoWWFsaWFzRGF0YV8QHWZhc3R2OF9BbGdvcml0aG1zRXhhbXBsZXMucGRm0hcLGBlXTlMuZGF0YU8RAi4AAAAAAi4AAgAADE1hY2ludG9zaCBIRAAAAAAAAAAAAAAAAAAAANK5RvZIKwAAACEwMB1mYXN0djhfQWxnb3JpdGhtc0V4YW1wbGVzLnBkZgAAAAAAAAAAAAAAAAAAAAAAAAAAAAAAAAAAAAAAAAAAAAAAITpR07Z88gAAAAAAAAAAAAEAAgAACSAAAAAAAAAAAAAAAAAAAAAKUmVmZXJlbmNlcwAQAAgAANK5qWYAAAARAAgAANO20VIAAAABABgAITAwACEcpAAhGsoAGFlvAA5fYgAGLF8AAgB5TWFjaW50b3NoIEhEOlVzZXJzOgBndmlqYXlhOgBDdXJyZW50UHJvamVjdHM6AEZBU1R2OEludGVncmF0aW9uOgBkcml2ZXJQcm9ncmFtOgBSZWZlcmVuY2VzOgBmYXN0djhfQWxnb3JpdGhtc0V4YW1wbGVzLnBkZgAADgA8AB0AZgBhAHMAdAB2ADgAXwBBAGwAZwBvAHIAaQB0AGgAbQBzAEUAeABhAG0AcABsAGUAcwAuAHAAZABmAA8AGgAMAE0AYQBjAGkAbgB0AG8AcwBoACAASABEABIAZlVzZXJzL2d2aWpheWEvQ3VycmVudFByb2plY3RzL0ZBU1R2OEludGVncmF0aW9uL2RyaXZlclByb2dyYW0vUmVmZXJlbmNlcy9mYXN0djhfQWxnb3JpdGhtc0V4YW1wbGVzLnBkZgATAAEvAAAVAAIADv//AACABtIbHB0eWiRjbGFzc25hbWVYJGNsYXNzZXNdTlNNdXRhYmxlRGF0YaMdHyBWTlNEYXRhWE5TT2JqZWN00hscIiNcTlNEaWN0aW9uYXJ5oiIgXxAPTlNLZXllZEFyY2hpdmVy0SYnVHJvb3SAAQAIABEAGgAjAC0AMgA3AEAARgBNAFUAYABnAGoAbABuAHEAcwB1AHcAhACOAK4AswC7Au0C7wL0Av8DCAMWAxoDIQMqAy8DPAM/A1EDVANZAAAAAAAAAgEAAAAAAAAAKAAAAAAAAAAAAAAAAAAAA1s=}}

@techreport{fastv8ModFramework,
	Author = {Jason M. Jonkman},
	Date-Added = {2016-07-21 19:25:11 +0000},
	Date-Modified = {2016-07-21 19:26:24 +0000},
	Institution = {National Renewable Energy Laboratory},
	Month = {January},
	Number = {NREL/CP-5000-57228},
	Title = {{The New Modularization Framework for the FAST Wind Turbine CAE Tool}},
	Year = {2013},
	Bdsk-File-1 = {YnBsaXN0MDDUAQIDBAUGJCVYJHZlcnNpb25YJG9iamVjdHNZJGFyY2hpdmVyVCR0b3ASAAGGoKgHCBMUFRYaIVUkbnVsbNMJCgsMDxJXTlMua2V5c1pOUy5vYmplY3RzViRjbGFzc6INDoACgAOiEBGABIAFgAdccmVsYXRpdmVQYXRoWWFsaWFzRGF0YV8QIWZhc3R2OE1vZHVsYXJpemF0aW9uRnJhbWV3b3JrLnBkZtIXCxgZV05TLmRhdGFPEQI8AAAAAAI8AAIAAAxNYWNpbnRvc2ggSEQAAAAAAAAAAAAAAAAAAADSuUb2SCsAAAAhMDAfZmFzdHY4TW9kdWxhcml6YXRpb24jMzZGODI4LnBkZgAAAAAAAAAAAAAAAAAAAAAAAAAAAAAAAAAAAAAAAAAAADb4KNO2fMIAAAAAAAAAAAABAAIAAAkgAAAAAAAAAAAAAAAAAAAAClJlZmVyZW5jZXMAEAAIAADSualmAAAAEQAIAADTttEiAAAAAQAYACEwMAAhHKQAIRrKABhZbwAOX2IABixfAAIAe01hY2ludG9zaCBIRDpVc2VyczoAZ3ZpamF5YToAQ3VycmVudFByb2plY3RzOgBGQVNUdjhJbnRlZ3JhdGlvbjoAZHJpdmVyUHJvZ3JhbToAUmVmZXJlbmNlczoAZmFzdHY4TW9kdWxhcml6YXRpb24jMzZGODI4LnBkZgAADgBEACEAZgBhAHMAdAB2ADgATQBvAGQAdQBsAGEAcgBpAHoAYQB0AGkAbwBuAEYAcgBhAG0AZQB3AG8AcgBrAC4AcABkAGYADwAaAAwATQBhAGMAaQBuAHQAbwBzAGgAIABIAEQAEgBqVXNlcnMvZ3ZpamF5YS9DdXJyZW50UHJvamVjdHMvRkFTVHY4SW50ZWdyYXRpb24vZHJpdmVyUHJvZ3JhbS9SZWZlcmVuY2VzL2Zhc3R2OE1vZHVsYXJpemF0aW9uRnJhbWV3b3JrLnBkZgATAAEvAAAVAAIADv//AACABtIbHB0eWiRjbGFzc25hbWVYJGNsYXNzZXNdTlNNdXRhYmxlRGF0YaMdHyBWTlNEYXRhWE5TT2JqZWN00hscIiNcTlNEaWN0aW9uYXJ5oiIgXxAPTlNLZXllZEFyY2hpdmVy0SYnVHJvb3SAAQAIABEAGgAjAC0AMgA3AEAARgBNAFUAYABnAGoAbABuAHEAcwB1AHcAhACOALIAtwC/Av8DAQMGAxEDGgMoAywDMwM8A0EDTgNRA2MDZgNrAAAAAAAAAgEAAAAAAAAAKAAAAAAAAAAAAAAAAAAAA20=}}

@techreport{fastv8,
	Author = {Jason M. Jonkman and Bonnie J. Jonkman},
	Date-Added = {2016-07-21 19:15:10 +0000},
	Date-Modified = {2016-07-21 19:28:31 +0000},
	Institution = {National Renewable Energy Laboratory},
	Month = {April},
	Title = {{FAST v8: Changelog}},
	Year = {2016},
	Bdsk-File-1 = {YnBsaXN0MDDUAQIDBAUGJCVYJHZlcnNpb25YJG9iamVjdHNZJGFyY2hpdmVyVCR0b3ASAAGGoKgHCBMUFRYaIVUkbnVsbNMJCgsMDxJXTlMua2V5c1pOUy5vYmplY3RzViRjbGFzc6INDoACgAOiEBGABIAFgAdccmVsYXRpdmVQYXRoWWFsaWFzRGF0YV8QEkZBU1R2OF9DaGFuZ2VzLnBkZtIXCxgZV05TLmRhdGFPEQICAAAAAAICAAIAAAxNYWNpbnRvc2ggSEQAAAAAAAAAAAAAAAAAAADSuUb2SCsAAAAhMDASRkFTVHY4X0NoYW5nZXMucGRmAAAAAAAAAAAAAAAAAAAAAAAAAAAAAAAAAAAAAAAAAAAAAAAAAAAAAAAAAAAAACE5CNO2ei0AAAAAAAAAAAABAAIAAAkgAAAAAAAAAAAAAAAAAAAAClJlZmVyZW5jZXMAEAAIAADSualmAAAAEQAIAADTts6NAAAAAQAYACEwMAAhHKQAIRrKABhZbwAOX2IABixfAAIAbk1hY2ludG9zaCBIRDpVc2VyczoAZ3ZpamF5YToAQ3VycmVudFByb2plY3RzOgBGQVNUdjhJbnRlZ3JhdGlvbjoAZHJpdmVyUHJvZ3JhbToAUmVmZXJlbmNlczoARkFTVHY4X0NoYW5nZXMucGRmAA4AJgASAEYAQQBTAFQAdgA4AF8AQwBoAGEAbgBnAGUAcwAuAHAAZABmAA8AGgAMAE0AYQBjAGkAbgB0AG8AcwBoACAASABEABIAW1VzZXJzL2d2aWpheWEvQ3VycmVudFByb2plY3RzL0ZBU1R2OEludGVncmF0aW9uL2RyaXZlclByb2dyYW0vUmVmZXJlbmNlcy9GQVNUdjhfQ2hhbmdlcy5wZGYAABMAAS8AABUAAgAO//8AAIAG0hscHR5aJGNsYXNzbmFtZVgkY2xhc3Nlc11OU011dGFibGVEYXRhox0fIFZOU0RhdGFYTlNPYmplY3TSGxwiI1xOU0RpY3Rpb25hcnmiIiBfEA9OU0tleWVkQXJjaGl2ZXLRJidUcm9vdIABAAgAEQAaACMALQAyADcAQABGAE0AVQBgAGcAagBsAG4AcQBzAHUAdwCEAI4AowCoALACtgK4Ar0CyALRAt8C4wLqAvMC+AMFAwgDGgMdAyIAAAAAAAACAQAAAAAAAAAoAAAAAAAAAAAAAAAAAAADJA==}}

@techreport{fastv7,
	Author = {Jason M. Jonkman and Marshall L. Buhl Jr.},
	Date-Added = {2016-07-21 18:11:47 +0000},
	Date-Modified = {2016-07-21 18:13:07 +0000},
	Institution = {National Renewable Energy Laboratory},
	Month = {August},
	Number = {NREL/EL-500-38230},
	Title = {{FAST User's Guide}},
	Year = {2005},
	Bdsk-File-1 = {YnBsaXN0MDDUAQIDBAUGJCVYJHZlcnNpb25YJG9iamVjdHNZJGFyY2hpdmVyVCR0b3ASAAGGoKgHCBMUFRYaIVUkbnVsbNMJCgsMDxJXTlMua2V5c1pOUy5vYmplY3RzViRjbGFzc6INDoACgAOiEBGABIAFgAdccmVsYXRpdmVQYXRoWWFsaWFzRGF0YV8QD0ZBU1R2N18yMDA1LnBkZtIXCxgZV05TLmRhdGFPEQH2AAAAAAH2AAIAAAxNYWNpbnRvc2ggSEQAAAAAAAAAAAAAAAAAAADSuUb2SCsAAAAhMDAPRkFTVHY3XzIwMDUucGRmAAAAAAAAAAAAAAAAAAAAAAAAAAAAAAAAAAAAAAAAAAAAAAAAAAAAAAAAAAAAAAAAACEwwNO2bHYAAAAAAAAAAAABAAIAAAkgAAAAAAAAAAAAAAAAAAAAClJlZmVyZW5jZXMAEAAIAADSualmAAAAEQAIAADTtsDWAAAAAQAYACEwMAAhHKQAIRrKABhZbwAOX2IABixfAAIAa01hY2ludG9zaCBIRDpVc2VyczoAZ3ZpamF5YToAQ3VycmVudFByb2plY3RzOgBGQVNUdjhJbnRlZ3JhdGlvbjoAZHJpdmVyUHJvZ3JhbToAUmVmZXJlbmNlczoARkFTVHY3XzIwMDUucGRmAAAOACAADwBGAEEAUwBUAHYANwBfADIAMAAwADUALgBwAGQAZgAPABoADABNAGEAYwBpAG4AdABvAHMAaAAgAEgARAASAFhVc2Vycy9ndmlqYXlhL0N1cnJlbnRQcm9qZWN0cy9GQVNUdjhJbnRlZ3JhdGlvbi9kcml2ZXJQcm9ncmFtL1JlZmVyZW5jZXMvRkFTVHY3XzIwMDUucGRmABMAAS8AABUAAgAO//8AAIAG0hscHR5aJGNsYXNzbmFtZVgkY2xhc3Nlc11OU011dGFibGVEYXRhox0fIFZOU0RhdGFYTlNPYmplY3TSGxwiI1xOU0RpY3Rpb25hcnmiIiBfEA9OU0tleWVkQXJjaGl2ZXLRJidUcm9vdIABAAgAEQAaACMALQAyADcAQABGAE0AVQBgAGcAagBsAG4AcQBzAHUAdwCEAI4AoAClAK0CpwKpAq4CuQLCAtAC1ALbAuQC6QL2AvkDCwMOAxMAAAAAAAACAQAAAAAAAAAoAAAAAAAAAAAAAAAAAAADFQ==}}

@techreport{fleming2013,
	Author = {Paul Fleming and Sang Lee and Matthew J. Churchfield and Andrew Scholbrock and John Michalakes and Kathryn Johnson and and Patrick Moriarty},
	Date-Added = {2016-07-21 18:05:29 +0000},
	Date-Modified = {2016-07-21 19:30:03 +0000},
	Institution = {National Renewable Energy Laboratory},
	Month = {January},
	Number = {NREL/CP-5000-57175},
	Title = {{The SOWFA Super-Controller: A High-Fidelity Tool for Evaluating Wind Plant Control Approaches}},
	Year = {2013},
	Bdsk-File-1 = {YnBsaXN0MDDUAQIDBAUGJCVYJHZlcnNpb25YJG9iamVjdHNZJGFyY2hpdmVyVCR0b3ASAAGGoKgHCBMUFRYaIVUkbnVsbNMJCgsMDxJXTlMua2V5c1pOUy5vYmplY3RzViRjbGFzc6INDoACgAOiEBGABIAFgAdccmVsYXRpdmVQYXRoWWFsaWFzRGF0YV8QHmZsZW1pbmdTdXBlckNvbnRyb2xsZXIyMDEzLnBkZtIXCxgZV05TLmRhdGFPEQIyAAAAAAIyAAIAAAxNYWNpbnRvc2ggSEQAAAAAAAAAAAAAAAAAAADSuUb2SCsAAAAhMDAeZmxlbWluZ1N1cGVyQ29udHJvbGxlcjIwMTMucGRmAAAAAAAAAAAAAAAAAAAAAAAAAAAAAAAAAAAAAAAAAAAAACEwM9O2a8sAAAAAAAAAAAABAAIAAAkgAAAAAAAAAAAAAAAAAAAAClJlZmVyZW5jZXMAEAAIAADSualmAAAAEQAIAADTtsArAAAAAQAYACEwMAAhHKQAIRrKABhZbwAOX2IABixfAAIAek1hY2ludG9zaCBIRDpVc2VyczoAZ3ZpamF5YToAQ3VycmVudFByb2plY3RzOgBGQVNUdjhJbnRlZ3JhdGlvbjoAZHJpdmVyUHJvZ3JhbToAUmVmZXJlbmNlczoAZmxlbWluZ1N1cGVyQ29udHJvbGxlcjIwMTMucGRmAA4APgAeAGYAbABlAG0AaQBuAGcAUwB1AHAAZQByAEMAbwBuAHQAcgBvAGwAbABlAHIAMgAwADEAMwAuAHAAZABmAA8AGgAMAE0AYQBjAGkAbgB0AG8AcwBoACAASABEABIAZ1VzZXJzL2d2aWpheWEvQ3VycmVudFByb2plY3RzL0ZBU1R2OEludGVncmF0aW9uL2RyaXZlclByb2dyYW0vUmVmZXJlbmNlcy9mbGVtaW5nU3VwZXJDb250cm9sbGVyMjAxMy5wZGYAABMAAS8AABUAAgAO//8AAIAG0hscHR5aJGNsYXNzbmFtZVgkY2xhc3Nlc11OU011dGFibGVEYXRhox0fIFZOU0RhdGFYTlNPYmplY3TSGxwiI1xOU0RpY3Rpb25hcnmiIiBfEA9OU0tleWVkQXJjaGl2ZXLRJidUcm9vdIABAAgAEQAaACMALQAyADcAQABGAE0AVQBgAGcAagBsAG4AcQBzAHUAdwCEAI4ArwC0ALwC8gL0AvkDBAMNAxsDHwMmAy8DNANBA0QDVgNZA14AAAAAAAACAQAAAAAAAAAoAAAAAAAAAAAAAAAAAAADYA==}}

@misc{MPI-3.1,
	Author = {{MPI Forum}},
	Month = {June},
	Note = {available at: \url{http://www.mpi-forum.org} (Jun. 2015)},
	Title = {{\textsf{MPI}: A Message-Passing Interface Standard. Version 3.1}},
	Year = {2015}}



@misc{hdf5,
    Author = {{The HDF Group}},
    Title = "{Hierarchical Data Format, version 5}",
    Year = {1997-NNNN},
    Note = {http://www.hdfgroup.org/HDF5/}
}
